@<TRIPOS>MOLECULE
MOL
   28    29     1     0     0
SMALL
bcc


@<TRIPOS>ATOM
      1 O1          22.1570    13.0090     5.7730 os         1 MOL      -0.330900
      2 C1          21.6590    14.1120     6.3420 ca         1 MOL       0.152100
      3 C2          20.7990    14.9550     5.6720 ca         1 MOL      -0.254000
      4 C3          20.3000    16.1040     6.3160 ca         1 MOL       0.179100
      5 C4          18.8320    17.9020     6.1690 c          1 MOL       0.737800
      6 C5          19.1060    18.1960     7.4760 cc         1 MOL      -0.327200
      7 C6          20.0540    17.5200     8.2050 cd         1 MOL       0.160600
      8 C7          20.2320    17.8400     9.7020 c3         1 MOL      -0.307400
      9 C8          20.6100    16.3500     7.5860 ca         1 MOL      -0.175800
     10 C9          21.4760    15.4720     8.2770 ca         1 MOL      -0.036000
     11 C10         21.9980    14.3710     7.6340 ca         1 MOL      -0.193000
     12 O2          19.4320    16.8780     5.5870 os         1 MOL      -0.344200
     13 O3          18.0860    18.5100     5.5470 o          1 MOL      -0.622500
     14 O4          19.1800    17.1950    12.0480 o          1 MOL      -0.855500
     15 O5          19.3270    15.3740    10.4920 o          1 MOL      -0.855500
     16 O6          17.5830    17.2030    10.2270 oh         1 MOL      -0.791400
     17 P1          18.9950    16.8720    10.7400 p5         1 MOL       1.337600
     18 H1          21.1610    17.5980     9.9830 hc         1 MOL       0.089700
     19 H2          20.0920    18.8190     9.8500 hc         1 MOL       0.089700
     20 H3          20.5300    14.7510     4.7310 ha         1 MOL       0.147000
     21 H4          18.5960    18.9330     7.9190 ha         1 MOL       0.162000
     22 H5          21.7100    15.6500     9.2330 ha         1 MOL       0.224000
     23 H6          17.3350    18.1540    10.4430 ho         1 MOL       0.432000
     24 C11         21.7880    12.6900     4.4140 c3         1 MOL       0.115700
     25 H7          22.6150    13.7540     8.1220 ha         1 MOL       0.150000
     26 H8          20.6000    12.5410     4.3370 h1         1 MOL       0.039367
     27 H9          22.1390    13.5730     3.6790 h1         1 MOL       0.039367
     28 H10         22.3290    11.6710     4.0830 h1         1 MOL       0.039367
@<TRIPOS>BOND
     1     1     2 1   
     2     1    24 1   
     3     2     3 ar  
     4     2    11 ar  
     5     3     4 ar  
     6     3    20 1   
     7     4     9 ar  
     8     4    12 1   
     9     5     6 1   
    10     5    12 1   
    11     5    13 2   
    12     6     7 2   
    13     6    21 1   
    14     7     8 1   
    15     7     9 1   
    16     8    17 1   
    17     8    18 1   
    18     8    19 1   
    19     9    10 ar  
    20    10    11 ar  
    21    10    22 1   
    22    11    25 1   
    23    14    17 1   
    24    15    17 1   
    25    16    17 1   
    26    16    23 1   
    27    24    26 1   
    28    24    27 1   
    29    24    28 1   
@<TRIPOS>SUBSTRUCTURE
     1 MOL         1 TEMP              0 ****  ****    0 ROOT
