@<TRIPOS>MOLECULE
MOL
   30    31     1     0     0
SMALL
bcc


@<TRIPOS>ATOM
      1 C1          22.1750    12.8680     5.6220 c3         1 MOL      -0.048800
      2 C2          21.6590    14.1120     6.3420 ca         1 MOL      -0.047300
      3 C3          20.7990    14.9550     5.6720 ca         1 MOL      -0.173000
      4 C4          20.3000    16.1040     6.3160 ca         1 MOL       0.143100
      5 C5          18.8320    17.9020     6.1690 c          1 MOL       0.735800
      6 C6          19.1060    18.1960     7.4760 cc         1 MOL      -0.320200
      7 C7          20.0540    17.5200     8.2050 cd         1 MOL       0.152600
      8 C8          20.2320    17.8400     9.7020 c3         1 MOL      -0.307400
      9 C9          20.6100    16.3500     7.5860 ca         1 MOL      -0.144800
     10 C10         21.4760    15.4720     8.2770 ca         1 MOL      -0.060000
     11 C11         21.9980    14.3710     7.6340 ca         1 MOL      -0.119300
     12 C12         22.9550    13.4410     8.3760 c3         1 MOL      -0.044800
     13 O1          19.4320    16.8780     5.5870 os         1 MOL      -0.342200
     14 O2          18.0860    18.5100     5.5470 o          1 MOL      -0.623500
     15 O3          19.1800    17.1950    12.0480 o          1 MOL      -0.856500
     16 O4          19.3270    15.3740    10.4920 o          1 MOL      -0.856500
     17 O5          17.5830    17.2030    10.2270 oh         1 MOL      -0.791400
     18 P1          18.9950    16.8720    10.7400 p5         1 MOL       1.337600
     19 H1          21.6570    12.7280     4.7780 hc         1 MOL       0.038033
     20 H2          22.5710    12.5180     8.4090 hc         1 MOL       0.040700
     21 H3          23.1420    12.9860     5.3950 hc         1 MOL       0.038033
     22 H4          22.0640    12.0750     6.2220 hc         1 MOL       0.038033
     23 H5          21.1610    17.5980     9.9830 hc         1 MOL       0.089700
     24 H6          20.0920    18.8190     9.8500 hc         1 MOL       0.089700
     25 H7          23.8340    13.4100     7.9000 hc         1 MOL       0.040700
     26 H8          23.0880    13.7850     9.3060 hc         1 MOL       0.040700
     27 H9          20.5300    14.7510     4.7310 ha         1 MOL       0.140000
     28 H10         18.5960    18.9330     7.9190 ha         1 MOL       0.161000
     29 H11         21.7100    15.6500     9.2330 ha         1 MOL       0.219000
     30 H12         17.3350    18.1540    10.4430 ho         1 MOL       0.432000
@<TRIPOS>BOND
     1     1     2 1   
     2     1    19 1   
     3     1    21 1   
     4     1    22 1   
     5     2     3 ar  
     6     2    11 ar  
     7     3     4 ar  
     8     3    27 1   
     9     4     9 ar  
    10     4    13 1   
    11     5     6 1   
    12     5    13 1   
    13     5    14 2   
    14     6     7 2   
    15     6    28 1   
    16     7     8 1   
    17     7     9 1   
    18     8    18 1   
    19     8    23 1   
    20     8    24 1   
    21     9    10 ar  
    22    10    11 ar  
    23    10    29 1   
    24    11    12 1   
    25    12    20 1   
    26    12    25 1   
    27    12    26 1   
    28    15    18 1   
    29    16    18 1   
    30    17    18 1   
    31    17    30 1   
@<TRIPOS>SUBSTRUCTURE
     1 MOL         1 TEMP              0 ****  ****    0 ROOT
